opendss/LVTestCase/data/Loads/Loads_286.txt
New Load.LOAD1 Phases=1 Bus1=34.1 kV=0.23 kW=1 PF=0.95 Yearly=Shape_121
New Load.LOAD2 Phases=1 Bus1=47.2 kV=0.23 kW=1 PF=0.95 Yearly=Shape_75
New Load.LOAD3 Phases=1 Bus1=70.1 kV=0.23 kW=1 PF=0.95 Yearly=Shape_158
New Load.LOAD4 Phases=1 Bus1=73.1 kV=0.23 kW=1 PF=0.95 Yearly=Shape_131
New Load.LOAD5 Phases=1 Bus1=74.1 kV=0.23 kW=1 PF=0.95 Yearly=Shape_42
New Load.LOAD6 Phases=1 Bus1=83.2 kV=0.23 kW=1 PF=0.95 Yearly=Shape_123
New Load.LOAD7 Phases=1 Bus1=178.2 kV=0.23 kW=1 PF=0.95 Yearly=Shape_54
New Load.LOAD8 Phases=1 Bus1=208.3 kV=0.23 kW=1 PF=0.95 Yearly=Shape_156
New Load.LOAD9 Phases=1 Bus1=225.1 kV=0.23 kW=1 PF=0.95 Yearly=Shape_161
New Load.LOAD10 Phases=1 Bus1=248.2 kV=0.23 kW=1 PF=0.95 Yearly=Shape_115
New Load.LOAD11 Phases=1 Bus1=249.2 kV=0.23 kW=1 PF=0.95 Yearly=Shape_140
New Load.LOAD12 Phases=1 Bus1=264.3 kV=0.23 kW=1 PF=0.95 Yearly=Shape_61
New Load.LOAD13 Phases=1 Bus1=276.2 kV=0.23 kW=1 PF=0.95 Yearly=Shape_43
New Load.LOAD14 Phases=1 Bus1=289.1 kV=0.23 kW=1 PF=0.95 Yearly=Shape_111
New Load.LOAD15 Phases=1 Bus1=314.2 kV=0.23 kW=1 PF=0.95 Yearly=Shape_27
New Load.LOAD16 Phases=1 Bus1=320.3 kV=0.23 kW=1 PF=0.95 Yearly=Shape_36
New Load.LOAD17 Phases=1 Bus1=327.3 kV=0.23 kW=1 PF=0.95 Yearly=Shape_128
New Load.LOAD18 Phases=1 Bus1=337.3 kV=0.23 kW=1 PF=0.95 Yearly=Shape_78
New Load.LOAD19 Phases=1 Bus1=342.3 kV=0.23 kW=1 PF=0.95 Yearly=Shape_101
New Load.LOAD20 Phases=1 Bus1=349.1 kV=0.23 kW=1 PF=0.95 Yearly=Shape_68
New Load.LOAD21 Phases=1 Bus1=387.1 kV=0.23 kW=1 PF=0.95 Yearly=Shape_20
New Load.LOAD22 Phases=1 Bus1=388.1 kV=0.23 kW=1 PF=0.95 Yearly=Shape_35
New Load.LOAD23 Phases=1 Bus1=406.2 kV=0.23 kW=1 PF=0.95 Yearly=Shape_83
New Load.LOAD24 Phases=1 Bus1=458.3 kV=0.23 kW=1 PF=0.95 Yearly=Shape_154
New Load.LOAD25 Phases=1 Bus1=502.1 kV=0.23 kW=1 PF=0.95 Yearly=Shape_60
New Load.LOAD26 Phases=1 Bus1=522.2 kV=0.23 kW=1 PF=0.95 Yearly=Shape_15
New Load.LOAD27 Phases=1 Bus1=539.3 kV=0.23 kW=1 PF=0.95 Yearly=Shape_47
New Load.LOAD28 Phases=1 Bus1=556.3 kV=0.23 kW=1 PF=0.95 Yearly=Shape_67
New Load.LOAD29 Phases=1 Bus1=562.1 kV=0.23 kW=1 PF=0.95 Yearly=Shape_69
New Load.LOAD30 Phases=1 Bus1=563.1 kV=0.23 kW=1 PF=0.95 Yearly=Shape_92
New Load.LOAD31 Phases=1 Bus1=611.1 kV=0.23 kW=1 PF=0.95 Yearly=Shape_56
New Load.LOAD32 Phases=1 Bus1=614.3 kV=0.23 kW=1 PF=0.95 Yearly=Shape_146
New Load.LOAD33 Phases=1 Bus1=619.3 kV=0.23 kW=1 PF=0.95 Yearly=Shape_6
New Load.LOAD34 Phases=1 Bus1=629.1 kV=0.23 kW=1 PF=0.95 Yearly=Shape_24
New Load.LOAD35 Phases=1 Bus1=639.2 kV=0.23 kW=1 PF=0.95 Yearly=Shape_153
New Load.LOAD36 Phases=1 Bus1=676.2 kV=0.23 kW=1 PF=0.95 Yearly=Shape_117
New Load.LOAD37 Phases=1 Bus1=682.2 kV=0.23 kW=1 PF=0.95 Yearly=Shape_129
New Load.LOAD38 Phases=1 Bus1=688.2 kV=0.23 kW=1 PF=0.95 Yearly=Shape_49
New Load.LOAD39 Phases=1 Bus1=701.3 kV=0.23 kW=1 PF=0.95 Yearly=Shape_96
New Load.LOAD40 Phases=1 Bus1=702.2 kV=0.23 kW=1 PF=0.95 Yearly=Shape_63
New Load.LOAD41 Phases=1 Bus1=755.2 kV=0.23 kW=1 PF=0.95 Yearly=Shape_44
New Load.LOAD42 Phases=1 Bus1=778.3 kV=0.23 kW=1 PF=0.95 Yearly=Shape_17
New Load.LOAD43 Phases=1 Bus1=780.3 kV=0.23 kW=1 PF=0.95 Yearly=Shape_22
New Load.LOAD44 Phases=1 Bus1=785.2 kV=0.23 kW=1 PF=0.95 Yearly=Shape_37
New Load.LOAD45 Phases=1 Bus1=813.2 kV=0.23 kW=1 PF=0.95 Yearly=Shape_155
New Load.LOAD46 Phases=1 Bus1=817.1 kV=0.23 kW=1 PF=0.95 Yearly=Shape_45
New Load.LOAD47 Phases=1 Bus1=835.3 kV=0.23 kW=1 PF=0.95 Yearly=Shape_138
New Load.LOAD48 Phases=1 Bus1=860.1 kV=0.23 kW=1 PF=0.95 Yearly=Shape_38
New Load.LOAD49 Phases=1 Bus1=861.1 kV=0.23 kW=1 PF=0.95 Yearly=Shape_33
New Load.LOAD50 Phases=1 Bus1=886.2 kV=0.23 kW=1 PF=0.95 Yearly=Shape_127
New Load.LOAD51 Phases=1 Bus1=896.1 kV=0.23 kW=1 PF=0.95 Yearly=Shape_120
New Load.LOAD52 Phases=1 Bus1=898.1 kV=0.23 kW=1 PF=0.95 Yearly=Shape_66
New Load.LOAD53 Phases=1 Bus1=899.2 kV=0.23 kW=1 PF=0.95 Yearly=Shape_41
New Load.LOAD54 Phases=1 Bus1=900.1 kV=0.23 kW=1 PF=0.95 Yearly=Shape_113
New Load.LOAD55 Phases=1 Bus1=906.1 kV=0.23 kW=1 PF=0.95 Yearly=Shape_144
